Circuit: * C:\Users\okays\OneDrive\10_DevTech_GARAGE\SpaceTech_GARAGE\LTSpice\rsp02_LoadSW_OCP_Circuit_v2_0\opa171_test.asc

Ignoring empty pin current: Ix(u1:vcm_clamp:vin+)
Ignoring empty pin current: Ix(u1:vcm_clamp:vin-)
Ignoring empty pin current: Ix(u1:vcm_clamp:vp+)
Ignoring empty pin current: Ix(u1:vcm_clamp:vp-)
Ignoring empty pin current: Ix(u1:iqp:vc+)
Ignoring empty pin current: Ix(u1:iqp:vc-)
Ignoring empty pin current: Ix(u1:iqn:vc+)
Ignoring empty pin current: Ix(u1:iqn:vc-)
Ignoring empty pin current: Ix(u1:clawp:vc+)
Ignoring empty pin current: Ix(u1:clawp:vc-)
Ignoring empty pin current: Ix(u1:clawn:vc+)
Ignoring empty pin current: Ix(u1:clawn:vc-)
Ignoring empty pin current: Ix(u1:cl_amp:vc+)
Ignoring empty pin current: Ix(u1:cl_amp:vc-)
Ignoring empty pin current: Ix(u1:cl_amp:vin)
Ignoring empty pin current: Ix(u1:ol_sense_opa171:3)
Ignoring empty pin current: Ix(u1:ol_sense_opa171:4)
Ignoring empty pin current: Ix(u1:claw_amp:vc+)
Ignoring empty pin current: Ix(u1:claw_amp:vc-)
Ignoring empty pin current: Ix(u1:claw_amp:vin)
Ignoring empty pin current: Ix(u1:cl_src:vc+)
Ignoring empty pin current: Ix(u1:cl_src:vc-)
Ignoring empty pin current: Ix(u1:claw_src:vc+)
Ignoring empty pin current: Ix(u1:claw_src:vc-)
Ignoring empty pin current: Ix(u1:gr_amp:vc+)
Ignoring empty pin current: Ix(u1:gr_amp:vc-)
Ignoring empty pin current: Ix(u1:gr_amp:vin)
Ignoring empty pin current: Ix(u1:gr_src:vc+)
Ignoring empty pin current: Ix(u1:gr_src:vc-)
Ignoring empty pin current: Ix(u1:vccs_lim_1_opa171:vc+)
Ignoring empty pin current: Ix(u1:vccs_lim_1_opa171:vc-)
Ignoring empty pin current: Ix(u1:vccs_lim_2_opa171:vc+)
Ignoring empty pin current: Ix(u1:vccs_lim_2_opa171:vc-)
Ignoring empty pin current: Ix(u1:vcvs_lim_1_opa171:vc+)
Ignoring empty pin current: Ix(u1:vcvs_lim_1_opa171:vc-)
Direct Newton iteration failed to find .op point.  (Use ".option noopiter" to skip.)
Starting Gmin stepping
Gmin = 10
Gmin = 1.07374
Gmin = 0.115292
Gmin = 0.0123794
Gmin = 0.00132923
vernier = 0.5
vernier = 0.25
vernier = 0.125
vernier = 0.0625
Gmin = 0.00126912
vernier = 0.03125
vernier = 0.015625
vernier = 0.0078125
vernier = 0.00390625
vernier = 0.00195313
Gmin = 0.00128393
vernier = 0.000976563
vernier = 0.00130208
Gmin = 0.00128112
vernier = 0.00173611
vernier = 0.00231481
Gmin = 0.0012758
vernier = 0.00308642
Gmin = 0.00126722
vernier = 0.00411522
vernier = 0.00548696
Gmin = 0.00125329
vernier = 0.00731595
vernier = 0.00975459
Gmin = 0.00123153
vernier = 0.0130061
Gmin = 0.00119704
vernier = 0.0173415
vernier = 0.023122
Gmin = 0.00114265
vernier = 0.0308293
vernier = 0.0411057
Gmin = 0.00106159
vernier = 0.0548076
Gmin = 0.000942337
vernier = 0.0730768
vernier = 0.0974357
Gmin = 0.000775825
vernier = 0.129914
vernier = 0.173219
Gmin = 0.000571097
vernier = 0.230959
vernier = 0.115479
Gmin = 0.000390407
vernier = 0.0577396
vernier = 0.0288698
vernier = 0.0144349
vernier = 0.00721745
Gmin = 0.000374053
vernier = 0.00360873
vernier = 0.00180436
vernier = 0.000902182
vernier = 0.000451091
Gmin = 0.000373337
Gmin = 0
Gmin stepping succeeded in finding the operating point.

Direct Newton iteration failed to find .op point.  (Use ".option noopiter" to skip.)
Starting Gmin stepping
Gmin = 10
Gmin = 1.07374
Gmin = 0.115292
Gmin = 0.0123794
Gmin = 0.00132923
vernier = 0.5
vernier = 0.25
vernier = 0.125
vernier = 0.0625
Gmin = 0.00123179
vernier = 0.03125
vernier = 0.015625
vernier = 0.0078125
vernier = 0.00390625
Gmin = 0.00122819
vernier = 0.00195313
vernier = 0.000976563
vernier = 0.000488281
Gmin = 0.00122699
vernier = 0.000651042
vernier = 0.000868055
Gmin = 0.00122508
vernier = 0.00115741
Gmin = 0.00122198
vernier = 0.00154321
vernier = 0.00205761
Gmin = 0.00121693
vernier = 0.00274348
vernier = 0.00365797
Gmin = 0.00120896
vernier = 0.0048773
Gmin = 0.00119613
vernier = 0.00650306
vernier = 0.00867074
Gmin = 0.00117543
vernier = 0.011561
vernier = 0.0154146
Gmin = 0.00114336
vernier = 0.0205529
Gmin = 0.00109321
vernier = 0.0274038
vernier = 0.0365384
Gmin = 0.00101587
vernier = 0.0487178
vernier = 0.0649571
Gmin = 0.000904588
vernier = 0.0866095
Gmin = 0.000749817
vernier = 0.115479
vernier = 0.153972
Gmin = 0.000552432
vernier = 0.205296
vernier = 0.273728
Gmin = 0.000341902
vernier = 0.364971
Gmin = 0.000158694
vernier = 0.486628
vernier = 0.648837
Gmin = 4.65184e-005
vernier = 0.865116
vernier = 1
Gmin = 7.32255e-006
Gmin = 7.86253e-007
Gmin = 8.44233e-008
Gmin = 9.06488e-009
Gmin = 9.73334e-010
vernier = 0.5
vernier = 0.25
Gmin = 2.04123e-010
vernier = 0.125
vernier = 0.0625
vernier = 0.03125
vernier = 0.015625
vernier = 0.0078125
vernier = 0.00390625
vernier = 0.00195313
vernier = 0.000976563
vernier = 0.000488281
Gmin = 0
Gmin = 0
Gmin stepping failed

Starting source stepping with srcstepmethod=0
Source Step = 3.0303%
vernier = 0.25
Source Step = 0.118371%
Source Step = 0.236742%
Source Step = 0.355114%
Source Step = 0.473485%
Source Step = 0.591856%
vernier = 0.00585938
Source Step = 0.73982%
Source Step = 0.917377%
Source Step = 1.09493%
Source Step = 1.27249%
Source Step = 1.45005%
vernier = 0.00878906
Source Step = 1.66312%
Source Step = 1.92945%
Source Step = 2.19579%
Source Step = 2.46212%
Source Step = 2.72846%
vernier = 0.0131836
Source Step = 3.03474%
Source Step = 3.43424%
Source Step = 3.83375%
Source Step = 4.23325%
Source Step = 4.63275%
vernier = 0.0197754
Source Step = 5.07221%
Source Step = 5.67146%
Source Step = 6.27071%
Source Step = 6.86997%
Source Step = 7.46922%
vernier = 0.0296631
Source Step = 8.09844%
Source Step = 8.99732%
Source Step = 9.8962%
Source Step = 10.7951%
Source Step = 11.694%
Source Step = 12.5928%
vernier = 0.0444946
Source Step = 13.9412%
Source Step = 15.2895%
Source Step = 16.6378%
Source Step = 17.9861%
Source Step = 19.3345%
vernier = 0.0667419
Source Step = 21.2895%
Source Step = 23.312%
Source Step = 25.3345%
Source Step = 27.357%
Source Step = 29.3795%
vernier = 0.100113
Source Step = 32.2109%
Source Step = 35.2447%
Source Step = 38.2784%
Source Step = 41.3121%
Source Step = 44.3458%
vernier = 0.150169
Source Step = 48.4414%
Source Step = 52.9919%
Source Step = 57.5425%
Source Step = 62.0931%
Source Step = 66.6437%
vernier = 0.225254
Source Step = 72.5595%
Source Step = 79.3854%
Source Step = 86.2112%
Source Step = 91.8426%
Source Step = 93.2504%
vernier = 0.00351959
Source Step = 93.2318%
Starting source stepping with srcstepmethod=1
Source Step = 3.0303%
vernier = 0.25
Source Step = 0.0177557%
Source Step = 0.0473485%
Source Step = 0.0769413%
Source Step = 0.106534%
Source Step = 0.136127%
vernier = 0.00146484
Source Step = 0.173118%
Source Step = 0.217507%
Source Step = 0.261896%
Source Step = 0.306286%
Source Step = 0.350675%
vernier = 0.00219727
Source Step = 0.403942%
Source Step = 0.470526%
Source Step = 0.537109%
Source Step = 0.603693%
Source Step = 0.670277%
vernier = 0.0032959
Source Step = 0.746848%
Source Step = 0.846724%
Source Step = 0.9466%
Source Step = 1.04648%
Source Step = 1.14635%
vernier = 0.00494385
Source Step = 1.25621%
Source Step = 1.40603%
Source Step = 1.55584%
Source Step = 1.70566%
Source Step = 1.85547%
vernier = 0.00741577
Source Step = 2.01277%
Source Step = 2.23749%
Source Step = 2.46221%
Source Step = 2.68693%
Source Step = 2.91165%
Source Step = 3.13637%
vernier = 0.0111237
Source Step = 3.47346%
Source Step = 3.81054%
Source Step = 4.14762%
Source Step = 4.4847%
Source Step = 4.82178%
vernier = 0.0166855
Source Step = 5.31054%
Source Step = 5.81616%
Source Step = 6.32179%
Source Step = 6.82741%
Source Step = 7.33303%
vernier = 0.0250282
Source Step = 8.0409%
Source Step = 8.79933%
Source Step = 9.55776%
Source Step = 10.3162%
Source Step = 11.0746%
vernier = 0.0375423
Source Step = 12.0985%
Source Step = 13.2361%
Source Step = 14.3738%
Source Step = 15.5114%
Source Step = 16.6491%
vernier = 0.0563135
Source Step = 18.128%
Source Step = 19.8345%
Source Step = 21.541%
Source Step = 23.2474%
Source Step = 24.9539%
vernier = 0.0844703
Source Step = 27.087%
Source Step = 29.6467%
Source Step = 32.2064%
Source Step = 34.7661%
Source Step = 37.3258%
vernier = 0.126705
Source Step = 40.3975%
Source Step = 44.237%
Source Step = 48.0766%
Source Step = 51.9161%
Source Step = 55.7557%
vernier = 0.190058
Source Step = 60.1712%
Source Step = 65.9305%
Source Step = 71.6899%
Source Step = 77.4492%
Source Step = 83.2085%
vernier = 0.285087
Source Step = 89.5438%
Source Step = 98.1828%
Source Step = 99.0135%
vernier = 0.00111362
Source stepping failed

Pseudo transient terminated at 102.725 s, solution accepted ready or not!

Date: Sat Jul 17 22:19:06 2021
Total elapsed time: 5.063 seconds.

tnom = 27
temp = 27
method = trap
totiter = 21578
traniter = 0
tranpoints = 0
accept = 0
rejected = 48
matrix size = 133
fillins = 244
solver = Alternate
Matrix Compiler1: 27.17 KB object code size  7.3/8.5/[5.0]
Matrix Compiler2: 17.00 KB object code size  5.8/5.9/[2.7]

