Circuit: * C:\Users\s.matsuda\OneDrive\10_DevTech_GARAGE\HardwareTech_GARAGE\LTSpice\rsp02_LoadSW_OCP_Circuit_v2_0\rsp02_LoadSW_OCP_Circuit_5.0V_v2_0.asc

Iload_dc: both pins shorted together -- ignoring.
Iload_ac: both pins shorted together -- ignoring.
Model "u4:nmos": Oxide thickness thinner than recommended for a level 3 MOSFET.
Model "u4:pmos": Oxide thickness thinner than recommended for a level 3 MOSFET.
Model "u2:nmos": Oxide thickness thinner than recommended for a level 3 MOSFET.
Model "u2:pmos": Oxide thickness thinner than recommended for a level 3 MOSFET.
Model "u3:nmos": Oxide thickness thinner than recommended for a level 3 MOSFET.
Model "u3:pmos": Oxide thickness thinner than recommended for a level 3 MOSFET.
WARNING: Less than two connections to node N005.  This node is used by VIOEXPDR_TRAN.
WARNING: Less than two connections to node N006.  This node is used by VRRX_TRAN.
WARNING: Less than two connections to node N004.  This node is used by VIN_AC.
WARNING: Less than two connections to node U5:U1:UA:TEST.  This node is used by E:U5:U1:UA:TEST.
WARNING: Less than two connections to node U5:U1:UA:VTH_DIFF.  This node is used by E:U5:U1:UA:VTHDIFF.
WARNING: Less than two connections to node U5:U1:UB:TEST.  This node is used by E:U5:U1:UB:TEST.
WARNING: Less than two connections to node U5:U1:UB:VTH_DIFF.  This node is used by E:U5:U1:UB:VTHDIFF.
Instance "m:u1:u1:t1:ni2": Length shorter than recommended for a level 1 MOSFET.
Instance "m:u1:u1:t2:ni2": Length shorter than recommended for a level 1 MOSFET.
Instance "m:u1:u1:t3:6": Length shorter than recommended for a level 1 MOSFET.
Instance "m:u1:u1:t3:6": Width narrower than recommended for a level 1 MOSFET.
Instance "m:u1:u1:mp1:1": Length shorter than recommended for a level 1 MOSFET.
Instance "m:u1:u1:t4:1": Length shorter than recommended for a level 1 MOSFET.
Instance "m:u1:u1:t4:1": Width narrower than recommended for a level 1 MOSFET.
Instance "m:u1:u1:md1:6": Length shorter than recommended for a level 1 MOSFET.
Instance "m:u8:2": Length shorter than recommended for a level 3 MOSFET.
Instance "m:u8:1": Length shorter than recommended for a level 3 MOSFET.
Instance "m:u4:2": Length shorter than recommended for a level 3 MOSFET.
Instance "m:u4:1": Length shorter than recommended for a level 3 MOSFET.
Instance "m:u2:2": Length shorter than recommended for a level 3 MOSFET.
Instance "m:u2:1": Length shorter than recommended for a level 3 MOSFET.
Instance "m:u3:2": Length shorter than recommended for a level 3 MOSFET.
Instance "m:u3:1": Length shorter than recommended for a level 3 MOSFET.
Direct Newton iteration failed to find .op point.  (Use ".option noopiter" to skip.)
Starting Gmin stepping
Gmin = 10
Gmin = 1.07374
Gmin = 0.115292
Gmin = 0.0123794
vernier = 0.5
vernier = 0.666667
Gmin = 0.0043261
vernier = 0.888888
vernier = 0.444444
vernier = 0.222222
Gmin = 0.00200053
vernier = 0.111111
vernier = 0.0555555
vernier = 0.0277778
vernier = 0.0138889
Gmin = 0.00206122
vernier = 0.00694444
vernier = 0.00347222
vernier = 0.00173611
vernier = 0.000868055
vernier = 0.000434028
Gmin = 0
Gmin = 0
Gmin stepping succeeded in finding the operating point.


Date: Mon Mar 14 17:15:31 2022
Total elapsed time: 6.437 seconds.

tnom = 27
temp = 27
method = modified trap
totiter = 65961
traniter = 64193
tranpoints = 21642
accept = 15396
rejected = 6246
matrix size = 301
fillins = 172
solver = Alternate
Thread vector: 119.5/44.5[8] 24.6/11.8[8] 16.1/9.8[6] 2.7/26.2[1]  2592/500
Matrix Compiler1: 27.31 KB object code size  8.7/6.4/[5.9]
Matrix Compiler2: 28.51 KB object code size  10.4/9.8/[2.9]

