Circuit: * C:\Users\okays\OneDrive\10_DevTech_GARAGE\SpaceTech_GARAGE\LTSpice\rsp02_LoadSW_OCP_Circuit_v2_0\rsp02_LoadSW_OCP_Circuit_3.3V_v2_0.asc

Iload_tran: both pins shorted together -- ignoring.
Iload_ac: both pins shorted together -- ignoring.
Model "u4:nmos": Oxide thickness thinner than recommended for a level 3 MOSFET.
Model "u4:pmos": Oxide thickness thinner than recommended for a level 3 MOSFET.
Model "u2:nmos": Oxide thickness thinner than recommended for a level 3 MOSFET.
Model "u2:pmos": Oxide thickness thinner than recommended for a level 3 MOSFET.
Model "u3:nmos": Oxide thickness thinner than recommended for a level 3 MOSFET.
Model "u3:pmos": Oxide thickness thinner than recommended for a level 3 MOSFET.
WARNING: Less than two connections to node N005.  This node is used by VIOEXPDR_TRAN.
WARNING: Less than two connections to node N006.  This node is used by VRRX_TRAN.
WARNING: Less than two connections to node N004.  This node is used by VIN_AC.
WARNING: Less than two connections to node U5:U1:UA:TEST.  This node is used by E:U5:U1:UA:TEST.
WARNING: Less than two connections to node U5:U1:UA:VTH_DIFF.  This node is used by E:U5:U1:UA:VTHDIFF.
WARNING: Less than two connections to node U5:U1:UB:TEST.  This node is used by E:U5:U1:UB:TEST.
WARNING: Less than two connections to node U5:U1:UB:VTH_DIFF.  This node is used by E:U5:U1:UB:VTHDIFF.
Instance "m:u1:u1:t1:ni2": Length shorter than recommended for a level 1 MOSFET.
Instance "m:u1:u1:t2:ni2": Length shorter than recommended for a level 1 MOSFET.
Instance "m:u1:u1:t3:6": Length shorter than recommended for a level 1 MOSFET.
Instance "m:u1:u1:t3:6": Width narrower than recommended for a level 1 MOSFET.
Instance "m:u1:u1:mp1:1": Length shorter than recommended for a level 1 MOSFET.
Instance "m:u1:u1:t4:1": Length shorter than recommended for a level 1 MOSFET.
Instance "m:u1:u1:t4:1": Width narrower than recommended for a level 1 MOSFET.
Instance "m:u1:u1:md1:6": Length shorter than recommended for a level 1 MOSFET.
Instance "m:u7:2": Length shorter than recommended for a level 3 MOSFET.
Instance "m:u7:1": Length shorter than recommended for a level 3 MOSFET.
Instance "m:u4:2": Length shorter than recommended for a level 3 MOSFET.
Instance "m:u4:1": Length shorter than recommended for a level 3 MOSFET.
Instance "m:u2:2": Length shorter than recommended for a level 3 MOSFET.
Instance "m:u2:1": Length shorter than recommended for a level 3 MOSFET.
Instance "m:u3:2": Length shorter than recommended for a level 3 MOSFET.
Instance "m:u3:1": Length shorter than recommended for a level 3 MOSFET.
Ignoring empty pin current: Ix(u1:u1:u2:in+)
Ignoring empty pin current: Ix(u1:u1:u2:in-)
Ignoring empty pin current: Ix(u1:u1:sdcomp:in+)
Ignoring empty pin current: Ix(u1:u1:sdcomp:in-)
Ignoring empty pin current: Ix(u1:u1:vrvbcomp:in+)
Ignoring empty pin current: Ix(u1:u1:vrvbcomp:in-)
Ignoring empty pin current: Ix(u5:u1:ua:in)
Ignoring empty pin current: Ix(u5:u1:ub:in)
Ignoring empty pin current: Ix(u5:u1:ug:a)
Ignoring empty pin current: Ix(u5:u1:ug:b)
Ignoring empty pin current: Ix(u5:u1:ug:vcc)
Ignoring empty pin current: Ix(u5:u1:outpd:vcc)
Ignoring empty pin current: Ix(u5:u1:uout:in)
Ignoring empty pin current: Ix(u5:u1:uout:vcc)
Ignoring empty pin current: Ix(u5:u1:icc:viout)
.step rtrim=3000
Direct Newton iteration failed to find .op point.  (Use ".option noopiter" to skip.)
Starting Gmin stepping
Gmin = 10
Gmin = 1.07374
Gmin = 0.115292
Gmin = 0.0123794
vernier = 0.5
vernier = 0.666667
Gmin = 0.0043261
vernier = 0.888888
vernier = 0.444444
Gmin = 0.000998862
vernier = 0.222222
vernier = 0.111111
vernier = 0.0555555
Gmin = 0.000828488
vernier = 0.0277778
vernier = 0.0138889
vernier = 0.00694444
vernier = 0.00347222
vernier = 0.00173611
Gmin = 0.000832756
vernier = 0.000868055
vernier = 0.000434028
Gmin = 0
Gmin stepping failed

Starting source stepping with srcstepmethod=0
Source Step = 3.0303%
vernier = 0.25
Source Step = 0.0177557%
Starting source stepping with srcstepmethod=1
Source Step = 3.0303%
vernier = 0.25
Source stepping failed

Pseudo Transient succeeded in finding the operating point at 287.411 ms.
Direct Newton iteration failed to find .op point.  (Use ".option noopiter" to skip.)
Starting Gmin stepping
Gmin = 10
Gmin = 1.07374
Gmin = 0.115292
Gmin = 0.0123794
Gmin = 0.00132923
vernier = 0.5
vernier = 0.25
vernier = 0.125
vernier = 0.0625
Gmin = 0.000850706
vernier = 0.03125
vernier = 0.015625
vernier = 0.0078125
Gmin = 0.000831109
vernier = 0.00390625
vernier = 0.00195313
vernier = 0.000976563
vernier = 0.000488281
Gmin = 0
Gmin stepping failed

Starting source stepping with srcstepmethod=0
Source Step = 3.0303%
Source Step = 33.3333%
Source Step = 37.7841%
Source Step = 37.9261%
Source Step = 38.0445%
Source Step = 38.1629%
Source Step = 38.2813%
Source Step = 38.3996%
vernier = 0.00585938
Source Step = 38.5594%
Source Step = 38.737%
Source Step = 38.9145%
Source Step = 39.0921%
Source Step = 39.2696%
vernier = 0.00878906
Source Step = 39.5005%
Source Step = 39.7668%
Source Step = 40.0331%
Source Step = 40.2995%
Source Step = 40.5658%
vernier = 0.0131836
Source Step = 40.8987%
Source Step = 41.2982%
Source Step = 41.6977%
Source Step = 42.0972%
Source Step = 42.4967%
vernier = 0.0197754
Source Step = 42.9761%
Source Step = 43.5754%
Source Step = 44.1747%
Source Step = 44.7739%
Source Step = 45.3732%
vernier = 0.0296631
Source Step = 46.0623%
Source Step = 46.9612%
Source Step = 47.8601%
Source Step = 48.759%
Source Step = 49.6578%
vernier = 0.0444946
Source Step = 50.6466%
Source Step = 51.9949%
Source Step = 53.3432%
Source Step = 54.6916%
Source Step = 56.0399%
vernier = 0.0667419
Source Step = 57.4556%
Source Step = 59.4781%
Source Step = 61.5006%
Source Step = 63.5231%
Source Step = 65.5456%
Source Step = 67.568%
vernier = 0.100113
Source Step = 70.6018%
Source Step = 73.6355%
Source Step = 76.6692%
Source Step = 79.7029%
Source Step = 82.7367%
vernier = 0.150169
Source Step = 87.1356%
Source Step = 91.6862%
Source Step = 96.2367%
Source Step = 99.991%
vernier = 0.00938559
Source Step = 99.9412%
Source Step = 100%
Source Step = 100%
Source Step = 100%
Source Step = 100%
Source Step = 100%
Source Step = 100%
Source Step = 100%
Source Step = 100%
Source Step = 100%
Source Step = 100%
Source Step = 100%
Source Step = 100%
Source Step = 100%
Source Step = 100%
Source Step = 100%
Source Step = 100%
Source Step = 100%
Source Step = 100%
Source Step = 100%
Source Step = 100%
Source Step = 100%
Source Step = 100%
Source Step = 100%
Source Step = 100%
Source Step = 100%
Source Step = 100%
Source Step = 100%
Source Step = 100%
Source Step = 100%
Source Step = 100%
Source Step = 100%
Source Step = 100%
Source Step = 100%
Source Step = 100%
Source Step = 100%
Source Step = 100%
Source Step = 100%
Source Step = 100%
Source Step = 100%
Source Step = 100%
Source Step = 100%
Source Step = 100%
Source Step = 100%
Source Step = 100%
Source Step = 100%
Source Step = 100%
Source Step = 100%
Source Step = 100%
Source Step = 100%
Source Step = 100%
Source Step = 100%
Source Step = 100%
Source Step = 100%
Source Step = 100%
Source Step = 100%
Source Step = 100%
Source Step = 100%
Source Step = 100%
Source Step = 100%
Source Step = 100%
Source Step = 100%
Source Step = 100%
Source Step = 100%
Source Step = 100%
Source Step = 100%
Source Step = 100%
Source Step = 100%
Source Step = 100%
Source Step = 100%
Source Step = 100%
Source Step = 100%
Source Step = 100%
Source Step = 100%
Source Step = 100%
Source Step = 100%
Source Step = 100%
Source Step = 100%
Source Step = 100%
Source Step = 100%
Source Step = 100%
Source Step = 100%
Source Step = 100%
Source Step = 100%
Source Step = 100%
Source Step = 100%
Source Step = 100%
Source Step = 100%
Source Step = 100%
Source Step = 100%
Source Step = 100%
Source Step = 100%
Source Step = 100%
Source Step = 100%
Source Step = 100%
Source Step = 100%
Source Step = 100%
Source Step = 100%
Source Step = 100%
Source Step = 100%
Source Step = 100%
Source Step = 100%
Source Step = 100%
Source Step = 100%
Source Step = 100%
Source Step = 100%
Source Step = 100%
Source Step = 100%
Source Step = 100%
Source Step = 100%
Source Step = 100%
Source Step = 100%
Source Step = 100%
Source Step = 100%
Source Step = 100%
Source Step = 100%
Source Step = 100%
Source Step = 100%
Source Step = 100%
Source Step = 100%
Source Step = 100%
Source Step = 100%
Source Step = 100%
Source Step = 100%
Source Step = 100%
Source Step = 100%
Source Step = 100%
Source Step = 100%
Source Step = 100%
Source Step = 100%
Source Step = 100%
Source Step = 100%
Source Step = 100%
Source Step = 100%
Source Step = 100%
Source Step = 100%
Source Step = 100%
Source Step = 100%
Source Step = 100%
Source Step = 100%
Source Step = 100%
Source Step = 100%
Source Step = 100%
Source Step = 100%
Source Step = 100%
Source Step = 100%
Source Step = 100%
Source Step = 100%
Source Step = 100%
Source Step = 100%
Source Step = 100%
Source Step = 100%
Source Step = 100%
Source Step = 100%
Source Step = 100%
Source Step = 100%
Source Step = 100%
Source Step = 100%
Source Step = 100%
Source Step = 100%
Source Step = 100%
Source Step = 100%
Source Step = 100%
Source Step = 100%
Source Step = 100%
Source Step = 100%
Source Step = 100%
Source Step = 100%
Source Step = 100%
Source Step = 100%
Source Step = 100%
Source Step = 100%
Source Step = 100%
Source Step = 100%
Source Step = 100%
Source Step = 100%
Source Step = 100%
Source Step = 100%
Source Step = 100%
Source Step = 100%
Source Step = 100%
Source Step = 100%
Source Step = 100%
Source Step = 100%
Source Step = 100%
Source Step = 100%
Source Step = 100%
Source Step = 100%
Source Step = 100%
Source Step = 100%
Source Step = 100%
Source Step = 100%
Source Step = 100%
Source Step = 100%
Source Step = 100%
Source Step = 100%
Source Step = 100%
Source Step = 100%
Source Step = 100%
Source Step = 100%
Source Step = 100%
Source Step = 100%
Source Step = 100%
Source Step = 100%
Source Step = 100%
Source Step = 100%
Source Step = 100%
Source Step = 100%
Source Step = 100%
Source Step = 100%
Source Step = 100%
Source Step = 100%
Source Step = 100%
Source Step = 100%
Source Step = 100%
Source Step = 100%
Source Step = 100%
Source Step = 100%
Source Step = 100%
Source Step = 100%
Source Step = 100%
Source Step = 100%
Source Step = 100%
Source Step = 100%
Source Step = 100%
Source Step = 100%
Source Step = 100%
Source Step = 100%
Source Step = 100%
Source Step = 100%
Source Step = 100%
Source Step = 100%
Source Step = 100%
Source Step = 100%
Source Step = 100%
Source Step = 100%
Source Step = 100%
Source Step = 100%
Source Step = 100%
Source Step = 100%
Source Step = 100%
Source Step = 100%
Source Step = 100%
Source Step = 100%
Source Step = 100%
Source Step = 100%
Source Step = 100%
Source Step = 100%
Source Step = 100%
Source Step = 100%
Source Step = 100%
Source Step = 100%
Source Step = 100%
Source Step = 100%
Source Step = 100%
Source Step = 100%
Source Step = 100%
Source Step = 100%
Source Step = 100%
Source Step = 100%
Source Step = 100%
Source Step = 100%
Source Step = 100%
Source Step = 100%
Source Step = 100%
Source Step = 100%
Source Step = 100%
Source Step = 100%
Source Step = 100%
Source Step = 100%
Source Step = 100%
Source Step = 100%
Source Step = 100%
Source Step = 100%
Source Step = 100%
Source Step = 100%
Source Step = 100%
Source Step = 100%
Source Step = 100%
Source Step = 100%
Source Step = 100%
Source Step = 100%
Source Step = 100%
Source Step = 100%
Source Step = 100%
Source Step = 100%
Source Step = 100%
Source Step = 100%
Source Step = 100%
Source Step = 100%
Source Step = 100%
Source Step = 100%
Source Step = 100%
Source Step = 100%
Source Step = 100%
Source Step = 100%
Source Step = 100%
Source Step = 100%
Source Step = 100%
Source Step = 100%
Source Step = 100%
Source Step = 100%
Source Step = 100%
Source Step = 100%
Source Step = 100%
Source Step = 100%
Source Step = 100%
Source Step = 100%
Source Step = 100%
Source Step = 100%
Source Step = 100%
Source Step = 100%
Source Step = 100%
Source Step = 100%
Source Step = 100%
Source Step = 100%
Source Step = 100%
Source Step = 100%
Source Step = 100%
Source Step = 100%
Source Step = 100%
Source Step = 100%
Source Step = 100%
Source Step = 100%
Source Step = 100%
Source Step = 100%
Source Step = 100%
Source Step = 100%
Source Step = 100%
Source Step = 100%
Source Step = 100%
Source Step = 100%
Source Step = 100%
Source Step = 100%
Source Step = 100%
Source Step = 100%
Source Step = 100%
Source Step = 100%
Source Step = 100%
Source Step = 100%
Source Step = 100%
Source Step = 100%
Source Step = 100%
Source Step = 100%
Source Step = 100%
Source Step = 100%
Source Step = 100%
Source Step = 100%
Source Step = 100%
Source Step = 100%
Source Step = 100%
Source Step = 100%
Source Step = 100%
Source Step = 100%
Source Step = 100%
Source Step = 100%
Source Step = 100%
Source Step = 100%
Source Step = 100%
Source Step = 100%
Source Step = 100%
Source Step = 100%
Source Step = 100%
Source Step = 100%
Source Step = 100%
Source Step = 100%
Source Step = 100%
Source Step = 100%
Source Step = 100%
Source Step = 100%
Source Step = 100%
Source Step = 100%
Source Step = 100%
Source Step = 100%
Source Step = 100%
Source Step = 100%
Source Step = 100%
Source Step = 100%
Source Step = 100%
Source Step = 100%
Source Step = 100%
Source Step = 100%
Source Step = 100%
Source Step = 100%
Source Step = 100%
Source Step = 100%
Source Step = 100%
Source Step = 100%
Source Step = 100%
Source Step = 100%
Source Step = 100%
Source Step = 100%
Source Step = 100%
Source Step = 100%
Source Step = 100%
Source Step = 100%
Source Step = 100%
Source Step = 100%
Source Step = 100%
Source Step = 100%
Source Step = 100%
Source Step = 100%
Source Step = 100%
Source Step = 100%
Source Step = 100%
Source Step = 100%
Source Step = 100%
Source Step = 100%
Source Step = 100%
Source Step = 100%
Source Step = 100%
Source Step = 100%
Source Step = 100%
Source Step = 100%
Source Step = 100%
Source Step = 100%
Source Step = 100%
Source Step = 100%
Source Step = 100%
Source Step = 100%
Source Step = 100%
Source Step = 100%
Source Step = 100%
Source Step = 100%
Source Step = 100%
Source Step = 100%
Source Step = 100%
Source Step = 100%
Source Step = 100%
Source Step = 100%
Source Step = 100%
Source Step = 100%
Source Step = 100%
Source Step = 100%
Source Step = 100%
Source Step = 100%
Source Step = 100%
Source Step = 100%
Source Step = 100%
Source Step = 100%
Source Step = 100%
Source Step = 100%
Source Step = 100%
Source Step = 100%
Source Step = 100%
Source Step = 100%
Source Step = 100%
Source Step = 100%
Source Step = 100%
Source Step = 100%
Source Step = 100%
Source Step = 100%
Source Step = 100%
Source Step = 100%
Source Step = 100%
Source Step = 100%
Source Step = 100%
Source Step = 100%
Source Step = 100%
Source Step = 100%
Source Step = 100%
Source Step = 100%
Source Step = 100%
Source Step = 100%
Source Step = 100%
Source Step = 100%
Source Step = 100%
Source Step = 100%
Source Step = 100%
Source Step = 100%
Source Step = 100%
Source Step = 100%
Source Step = 100%
Source Step = 100%
Source Step = 100%
Source stepping succeeded in finding the operating point.

Direct Newton iteration failed to find .op point.  (Use ".option noopiter" to skip.)
Starting Gmin stepping
Gmin = 10
Gmin = 1.07374
Gmin = 0.115292
Gmin = 0.0123794
Gmin = 0.00132923
vernier = 0.5
vernier = 0.25
vernier = 0.125
vernier = 0.0625
Gmin = 0.000850706
vernier = 0.03125
vernier = 0.015625
vernier = 0.0078125
Gmin = 0.000831109
vernier = 0.00390625
vernier = 0.00195313
vernier = 0.000976563
vernier = 0.000488281
Gmin = 0
Gmin stepping failed

Starting source stepping with srcstepmethod=0
Source Step = 3.0303%
Source Step = 33.3333%
Source Step = 37.7841%
Source Step = 37.9261%
Source Step = 38.0445%
Source Step = 38.1629%
Source Step = 38.2813%
Source Step = 38.3996%
vernier = 0.00585938
Source Step = 38.5594%
Source Step = 38.737%
Source Step = 38.9145%
Source Step = 39.0921%
Source Step = 39.2696%
vernier = 0.00878906
Source Step = 39.5005%
Source Step = 39.7668%
Source Step = 40.0331%
Source Step = 40.2995%
Source Step = 40.5658%
vernier = 0.0131836
Source Step = 40.8987%
Source Step = 41.2982%
Source Step = 41.6977%
Source Step = 42.0972%
Source Step = 42.4967%
vernier = 0.0197754
Source Step = 42.9761%
Source Step = 43.5754%
Source Step = 44.1747%
Source Step = 44.7739%
Source Step = 45.3732%
vernier = 0.0296631
Source Step = 46.0623%
Source Step = 46.9612%
Source Step = 47.8601%
Source Step = 48.759%
Source Step = 49.6578%
vernier = 0.0444946
Source Step = 50.6466%
Source Step = 51.9949%
Source Step = 53.3432%
Source Step = 54.6916%
Source Step = 56.0399%
vernier = 0.0667419
Source Step = 57.4556%
Source Step = 59.4781%
Source Step = 61.5006%
Source Step = 63.5231%
Source Step = 65.5456%
Source Step = 67.568%
vernier = 0.100113
Source Step = 70.6018%
Source Step = 73.6355%
Source Step = 76.6692%
Source Step = 79.7029%
Source Step = 82.7367%
vernier = 0.150169
Source Step = 87.1356%
Source Step = 91.6862%
Source Step = 96.2367%
Source Step = 99.991%
vernier = 0.00938559
Source Step = 99.9412%
Source Step = 100%
Source Step = 100%
Source Step = 100%
Source Step = 100%
Source Step = 100%
Source Step = 100%
Source Step = 100%
Source Step = 100%
Source Step = 100%
Source Step = 100%
Source Step = 100%
Source Step = 100%
Source Step = 100%
Source Step = 100%
Source Step = 100%
Source Step = 100%
Source Step = 100%
Source Step = 100%
Source Step = 100%
Source Step = 100%
Source Step = 100%
Source Step = 100%
Source Step = 100%
Source Step = 100%
Source Step = 100%
Source Step = 100%
Source Step = 100%
Source Step = 100%
Source Step = 100%
Source Step = 100%
Source Step = 100%
Source Step = 100%
Source Step = 100%
Source Step = 100%
Source Step = 100%
Source Step = 100%
Source Step = 100%
Source Step = 100%
Source Step = 100%
Source Step = 100%
Source Step = 100%
Source Step = 100%
Source Step = 100%
Source Step = 100%
Source Step = 100%
Source Step = 100%
Source Step = 100%
Source Step = 100%
Source Step = 100%
Source Step = 100%
Source Step = 100%
Source Step = 100%
Source Step = 100%
Source Step = 100%
Source Step = 100%
Source Step = 100%
Source Step = 100%
Source Step = 100%
Source Step = 100%
Source Step = 100%
Source Step = 100%
Source Step = 100%
Source Step = 100%
Source Step = 100%
Source Step = 100%
Source Step = 100%
Source Step = 100%
Source Step = 100%
Source Step = 100%
Source Step = 100%
Source Step = 100%
Source Step = 100%
Source Step = 100%
Source Step = 100%
Source Step = 100%
Source Step = 100%
Source Step = 100%
Source Step = 100%
Source Step = 100%
Source Step = 100%
Source Step = 100%
Source Step = 100%
Source Step = 100%
Source Step = 100%
Source Step = 100%
Source Step = 100%
Source Step = 100%
Source Step = 100%
Source Step = 100%
Source Step = 100%
Source Step = 100%
Source Step = 100%
Source Step = 100%
Source Step = 100%
Source Step = 100%
Source Step = 100%
Source Step = 100%
Source Step = 100%
Source Step = 100%
Source Step = 100%
Source Step = 100%
Source Step = 100%
Source Step = 100%
Source Step = 100%
Source Step = 100%
Source Step = 100%
Source Step = 100%
Source Step = 100%
Source Step = 100%
Source Step = 100%
Source Step = 100%
Source Step = 100%
Source Step = 100%
Source Step = 100%
Source Step = 100%
Source Step = 100%
Source Step = 100%
Source Step = 100%
Source Step = 100%
Source stepping succeeded in finding the operating point.

.step rtrim=3100

Date: Fri Feb 11 15:20:18 2022
Total elapsed time: 301.141 seconds.

tnom = 27
temp = 27
method = trap
totiter = 66773
traniter = 0
tranpoints = 0
accept = 0
rejected = 29
matrix size = 327
fillins = 300
Thread vector: 119.2/69.8[4] 0.0/0.0[4] 116.2/79.5[4] 7.6/83.9[1]  2592/500
Matrix Compiler1: 33.12 KB object code size  17.3/12.7/[9.6]
Matrix Compiler2: 34.16 KB object code size  96.2/13.9/[9.0]

